Slack_methods/case9.m
function mpc = case9
mpc.version = '2';
mpc.baseMVA = 100.0;
%% Bus Data
mpc.bus = [
  1.0	3.0	0.0	0.0	0.0	0.0	1.0	1.0	0.0	230.0	1.0	1.05	0.9;
  2.0	1.0	200.0	100.0	0.0	0.0	1.0	1.0	0.0	230.0	1.0	1.05	0.9;
  3.0	1.0	700.0	150.0	0.0	0.0	1.0	1.0	0.0	230.0	1.0	1.05	0.9;
];
%% Generator Data
mpc.gen = [
  3.0	10.0	0.0	100.0	-100.0	1.0	100.0	1.0	180.0	0.0;
  1.0	200.0	0.0	9999.0	-9999.0	1.0	100.0	1.0	1000.0	40.0;
];
%% Branch Data
mpc.branch = [
  2.0	3.0	0.00281	0.0281	0.00356	500.0	500.0	500.0	1.0	0.0	1.0	-40.10706	40.10706;
  1.0	2.0	0.00281	0.0281	0.00356	500.0	500.0	500.0	1.0	0.0	1.0	-40.10706	40.10706;
];
%% Generator Cost Data
mpc.gencost = [
  2.0	0.0	0.0	3.0	0.0	67.0	0.0;
  2.0	4.0	2.0	3.0	0.0	1400.0	0.0;
];
end